&prop_file
 thermfile = "thermo.chem",
 tranfile  = "trans.chem",
 ljfile    = "lennardjones.chem",
&end

! Methane Air Reaction
ELEMENTS
H  O  C N
END

SPECIES
CH4 O2 H2O CO2 N2
END

REACTIONS
1
CH4+2O2=CO2+2H2O+G/0.2,1.3
                20.0e9   0.0  -24358
!REV    0.0   0.0   0.0
END
